Codigos/Simulacoes/30/06 - EE/ieee30_21_2100_EE.txt
================================================================================= 
=== UFF - Doutorado em Computação - Aplicaçoes em Sistemas de Potencia        === 
=== ESTIMADOR DE ESTADO MÍNIMOS QUADRADOS PONDERADOS INCLUINDO MEDIDAS DE PMU === 
=== Desenvolvido por: Rui Menezes de Moraes - 2009                            === 
================================================================================= 
Arquivo de medidores:          F:\Documents\Uff\Artigos\SimSEP\VERSAO WELDAN V2\Codigos\Med\ieee30_21_2100.med
Arquivo do sistema:            F:\Documents\Uff\Artigos\SimSEP\VERSAO WELDAN V2\Codigos\Carga\ieee30_21_2100.txt
Tolerância entre iteraçoes:     1.00e-04
Limite de iteraçoes:           100

--- DADOS DA REDE --------------------------------------------------------------- 
Data do caso:                  08/20/93
Origem:                        UW ARCHIVE          
MVA base:                      100
Ano:                           1961
Estação:                       W
Identificação:                 IEEE 30 Bus Test Case
Número de barras:              30 
Número de ramos:               41 
Referência na barra:           1

--- TELEMEDIDAS ------------------------------------------------------------------
    Tipo 1 = Fluxo de potencia ativa        Tipo  6 = Módulo da tensão            
    Tipo 2 = Injeção de potencia ativa      Tipo  7 = Corrente de ramo (real)     
    Tipo 3 = Ângulo de fase da tensão       Tipo  8 = Corrente de ramo (imag)     
    Tipo 4 = Fluxo de potencia reativa      Tipo  9 = Injeção de corrente (real)  
    Tipo 5 = Injeção de potencia reativa    Tipo 10 = Injeção de corrente (imag)  
----------------------------------------------------------------------------------
   N    D    P TP  PN ST   Exa   FS       DP      V_Ref      V_Med          E(%) 
----------------------------------------------------------------------------------
   1    0    1  6   0  0 0.015 01.1  0.00530   +1.06000   +1.07084     +1.022642 
   2    0    2  6   0  0 0.015 01.1  0.00522   +1.04500   +1.05075     +0.550239 
   3    0    3  6   0  0 0.015 01.1  0.00515   +1.03068   +1.02053     -0.984787 
   4    0    4  6   0  0 0.015 01.1  0.00511   +1.02283   +1.01477     -0.788010 
   5    0    5  6   0  0 0.015 01.1  0.00505   +1.01000   +1.00801     -0.197030 
   6    0    6  6   0  0 0.015 01.1  0.00509   +1.01871   +1.00419     -1.425332 
   7    0    7  6   0  0 0.015 01.1  0.00506   +1.01121   +1.00419     -0.694218 
   8    0    8  6   0  0 0.015 01.1  0.00505   +1.01000   +1.02455     +1.440594 
   9    0    9  6   0  0 0.015 01.1  0.00532   +1.06480   +1.05882     -0.561608 
  10    0   10  6   0  0 0.015 01.1  0.00534   +1.06835   +1.07065     +0.215285 
  11    0   11  6   0  0 0.015 01.1  0.00541   +1.08200   +1.08562     +0.334566 
  12    0   12  6   0  0 0.015 01.1  0.00536   +1.07164   +1.08455     +1.204696 
  13    0   13  6   0  0 0.015 01.1  0.00536   +1.07100   +1.06766     -0.311858 
  14    0   14  6   0  0 0.015 01.1  0.00532   +1.06396   +1.07012     +0.578969 
  15    0   15  6   0  0 0.015 01.1  0.00531   +1.06189   +1.05247     -0.887098 
  16    0   16  6   0  0 0.015 01.1  0.00533   +1.06605   +1.05207     -1.311383 
  17    0   17  6   0  0 0.015 01.1  0.00532   +1.06486   +1.06877     +0.367184 
  18    0   18  6   0  0 0.015 01.1  0.00529   +1.05752   +1.06349     +0.564528 
  19    0   19  6   0  0 0.015 01.1  0.00528   +1.05663   +1.05019     -0.609485 
  20    0   20  6   0  0 0.015 01.1  0.00530   +1.05912   +1.06140     +0.215273 
  21    0   21  6   0  0 0.015 01.1  0.00531   +1.06150   +1.05564     -0.552049 
  22    0   22  6   0  0 0.015 01.1  0.00531   +1.06180   +1.07166     +0.928612 
  23    0   23  6   0  0 0.015 01.1  0.00529   +1.05713   +1.05287     -0.402978 
  24    0   24  6   0  0 0.015 01.1  0.00528   +1.05538   +1.06167     +0.595994 
  25    0   25  6   0  0 0.015 01.1  0.00524   +1.04784   +1.05203     +0.399870 
  26    0   26  6   0  0 0.015 01.1  0.00519   +1.03817   +1.05264     +1.393799 
  27    0   27  6   0  0 0.015 01.1  0.00524   +1.04777   +1.03836     -0.898098 
  28    0   28  6   0  0 0.015 01.1  0.00508   +1.01637   +1.01936     +0.294184 
  29    0   29  6   0  0 0.015 01.1  0.00519   +1.03699   +1.02404     -1.248807 
  30    0   30  6   0  0 0.015 01.1  0.00515   +1.03076   +1.03213     +0.132912 
  31    0    1  2   0  0 0.020 01.0  0.00802   +0.94261   +0.95926     +1.766372 
  32    0    2  2   0  0 0.020 01.0  0.00585   +0.61800   +0.60187     -2.610032 
  33    0    3  2   0  0 0.020 01.0  0.00183   -0.01400   -0.01587    +13.357143 
  34    0    4  2   0  0 0.020 01.0  0.00219   -0.06900   -0.06624     -4.000000 
  35    0    5  2   0  0 0.020 01.0  0.00531   -0.53700   -0.52551     -2.139665 
  36    0    6  2   0  0 0.020 01.0  0.00173   +0.00000   +0.00001     +0.000000 
  37    0    7  2   0  0 0.020 01.0  0.00260   -0.13000   -0.12228     -5.938462 
  38    0    8  2   0  0 0.020 01.0  0.00287   -0.17100   -0.17223     +0.719298 
  39    0    9  2   0  0 0.020 01.0  0.00173   +0.00000   -0.00242     +0.000000 
  40    0   10  2   0  0 0.020 01.0  0.00195   -0.03200   -0.03232     +1.000000 
  41    0   11  2   0  0 0.020 01.0  0.00173   -0.00000   -0.00353     +0.000000 
  42    0   12  2   0  0 0.020 01.0  0.00216   -0.06400   -0.06842     +6.906250 
  43    0   13  2   0  0 0.020 01.0  0.00173   +0.00000   -0.00241     +0.000000 
  44    0   14  2   0  0 0.020 01.0  0.00197   -0.03500   -0.03197     -8.657143 
  45    0   15  2   0  0 0.020 01.0  0.00205   -0.04700   -0.04566     -2.851064 
  46    0   16  2   0  0 0.020 01.0  0.00187   -0.02000   -0.01477    -26.150000 
  47    0   17  2   0  0 0.020 01.0  0.00207   -0.05100   -0.04760     -6.666667 
  48    0   18  2   0  0 0.020 01.0  0.00185   -0.01800   -0.01719     -4.500000 
  49    0   19  2   0  0 0.020 01.0  0.00209   -0.05400   -0.05463     +1.166667 
  50    0   20  2   0  0 0.020 01.0  0.00182   -0.01300   -0.01533    +17.923077 
  51    0   21  2   0  0 0.020 01.0  0.00240   -0.10000   -0.09637     -3.630000 
  52    0   22  2   0  0 0.020 01.0  0.00173   -0.00000   -0.00422     +0.000000 
  53    0   23  2   0  0 0.020 01.0  0.00185   -0.01800   -0.02237    +24.277778 
  54    0   24  2   0  0 0.020 01.0  0.00207   -0.05000   -0.04709     -5.820000 
  55    0   25  2   0  0 0.020 01.0  0.00173   -0.00000   -0.00151     +0.000000 
  56    0   26  2   0  0 0.020 01.0  0.00187   -0.02000   -0.01910     -4.500000 
  57    0   27  2   0  0 0.020 01.0  0.00173   +0.00000   -0.00209     +0.000000 
  58    0   28  2   0  0 0.020 01.0  0.00173   +0.00000   +0.00222     +0.000000 
  59    0   29  2   0  0 0.020 01.0  0.00183   -0.01400   -0.01553    +10.928571 
  60    0   30  2   0  0 0.020 01.0  0.00213   -0.06000   -0.05720     -4.666667 
  61    0    1  5   0  0 0.020 01.0  0.00266   +0.13978   +0.14770     +5.666047 
  62    0    2  5   0  0 0.020 01.0  0.00177   -0.00576   -0.01019    +76.909722 
  63    0    3  5   0  0 0.020 01.0  0.00178   -0.00700   -0.00734     +4.857143 
  64    0    4  5   0  0 0.020 01.0  0.00183   -0.01500   -0.01947    +29.800000 
  65    0    5  5   0  0 0.020 01.0  0.00214   -0.06146   -0.05856     -4.718516 
  66    0    6  5   0  0 0.020 01.0  0.00173   +0.00000   +0.00429     +0.000000 
  67    0    7  5   0  0 0.020 01.0  0.00215   -0.06200   -0.06733     +8.596774 
  68    0    8  5   0  0 0.020 01.0  0.00319   -0.21863   -0.21825     -0.173810 
  69    0    9  5   0  0 0.020 01.0  0.00173   +0.00000   +0.00055     +0.000000 
  70    0   10  5   0  0 0.020 01.0  0.00181   -0.01100   -0.00899    -18.272727 
  71    0   11  5   0  0 0.020 01.0  0.00233   +0.08947   +0.08667     -3.129541 
  72    0   12  5   0  0 0.020 01.0  0.00202   -0.04300   -0.04177     -2.860465 
  73    0   13  5   0  0 0.020 01.0  0.00177   -0.00488   -0.00807    +65.368852 
  74    0   14  5   0  0 0.020 01.0  0.00179   -0.00900   -0.00731    -18.777778 
  75    0   15  5   0  0 0.020 01.0  0.00183   -0.01400   -0.01183    -15.500000 
  76    0   16  5   0  0 0.020 01.0  0.00180   -0.01000   -0.01044     +4.400000 
  77    0   17  5   0  0 0.020 01.0  0.00195   -0.03300   -0.03701    +12.151515 
  78    0   18  5   0  0 0.020 01.0  0.00177   -0.00500   -0.00583    +16.600000 
  79    0   19  5   0  0 0.020 01.0  0.00186   -0.01900   -0.01793     -5.631579 
  80    0   20  5   0  0 0.020 01.0  0.00176   -0.00400   -0.00588    +47.000000 
  81    0   21  5   0  0 0.020 01.0  0.00216   -0.06400   -0.05971     -6.703125 
  82    0   22  5   0  0 0.020 01.0  0.00173   +0.00000   -0.00392     +0.000000 
  83    0   23  5   0  0 0.020 01.0  0.00179   -0.00900   -0.01168    +29.777778 
  84    0   24  5   0  0 0.020 01.0  0.00199   -0.03800   -0.03278    -13.736842 
  85    0   25  5   0  0 0.020 01.0  0.00173   +0.00000   +0.00161     +0.000000 
  86    0   26  5   0  0 0.020 01.0  0.00182   -0.01300   -0.01024    -21.230769 
  87    0   27  5   0  0 0.020 01.0  0.00173   +0.00000   +0.00323     +0.000000 
  88    0   28  5   0  0 0.020 01.0  0.00173   +0.00000   -0.00470     +0.000000 
  89    0   29  5   0  0 0.020 01.0  0.00177   -0.00500   -0.00590    +18.000000 
  90    0   30  5   0  0 0.020 01.0  0.00181   -0.01100   -0.00856    -22.181818 
  91    1    2  1   0  0 0.020 01.0  0.00528   +0.53223   +0.52079     -2.149447 
  92    1    3  1   0  0 0.020 01.0  0.00447   +0.41038   +0.41393     +0.865052 
  93    2    4  1   0  0 0.020 01.0  0.00370   +0.29500   +0.28938     -1.905085 
  94    3    4  1   0  0 0.020 01.0  0.00433   +0.38930   +0.39813     +2.268174 
  95    2    5  1   0  0 0.020 01.0  0.00489   +0.47332   +0.48320     +2.087383 
  96    2    6  1   0  0 0.020 01.0  0.00425   +0.37688   +0.37568     -0.318404 
  97    4    6  1   0  0 0.020 01.0  0.00416   +0.36396   +0.36134     -0.719859 
  98    5    7  1   0  0 0.020 01.0  0.00222   -0.07372   -0.06756     -8.355941 
  99    6    7  1   0  0 0.020 01.0  0.00310   +0.20508   +0.19593     -4.461673 
 100    6    8  1   0  0 0.020 01.0  0.00285   +0.16703   +0.16529     -1.041729 
 101    6    9  1   0  0 0.020 01.0  0.00281   +0.16165   +0.16144     -0.129910 
 102    6   10  1   0  0 0.020 01.0  0.00235   +0.09279   +0.09446     +1.799763 
 103    9   11  1   0  0 0.020 01.0  0.00173   +0.00000   -0.00447     +0.000000 
 104    9   10  1   0  0 0.020 01.0  0.00281   +0.16165   +0.15562     -3.730281 
 105    4   12  1   0  0 0.020 01.0  0.00336   +0.24473   +0.24785     +1.274874 
 106   12   13  1   0  0 0.020 01.0  0.00173   -0.00000   -0.00293     +0.000000 
 107   12   14  1   0  0 0.020 01.0  0.00202   +0.04343   +0.03881    -10.637808 
 108   12   15  1   0  0 0.020 01.0  0.00239   +0.09901   +0.09245     -6.625593 
 109   12   16  1   0  0 0.020 01.0  0.00199   +0.03829   +0.03430    -10.420475 
 110   14   15  1   0  0 0.020 01.0  0.00179   +0.00822   +0.00834     +1.459854 
 111   16   17  1   0  0 0.020 01.0  0.00185   +0.01816   +0.02225    +22.522026 
 112   15   18  1   0  0 0.020 01.0  0.00195   +0.03210   +0.03521     +9.688474 
 113   18   19  1   0  0 0.020 01.0  0.00183   +0.01400   +0.01000    -28.571429 
 114   19   20  1   0  0 0.020 01.0  0.00200   -0.04001   -0.04523    +13.046738 
 115   10   20  1   0  0 0.020 01.0  0.00209   +0.05335   +0.05551     +4.048735 
 116   10   17  1   0  0 0.020 01.0  0.00195   +0.03291   +0.03271     -0.607718 
 117   10   21  1   0  0 0.020 01.0  0.00234   +0.09165   +0.09159     -0.065466 
 118   10   22  1   0  0 0.020 01.0  0.00203   +0.04452   +0.04225     -5.098832 
 119   21   22  1   0  0 0.020 01.0  0.00179   -0.00869   -0.01059    +21.864212 
 120   15   23  1   0  0 0.020 01.0  0.00192   +0.02749   +0.03220    +17.133503 
 121   22   24  1   0  0 0.020 01.0  0.00197   +0.03566   +0.03507     -1.654515 
 122   23   24  1   0  0 0.020 01.0  0.00180   +0.00941   +0.01209    +28.480340 
 123   24   25  1   0  0 0.020 01.0  0.00177   -0.00510   -0.00843    +65.294118 
 124   25   26  1   0  0 0.020 01.0  0.00187   +0.02013   +0.01548    -23.099851 
 125   25   27  1   0  0 0.020 01.0  0.00190   -0.02536   -0.02870    +13.170347 
 126   28   27  1   0  0 0.020 01.0  0.00240   +0.10029   +0.10114     +0.847542 
 127   27   29  1   0  0 0.020 01.0  0.00197   +0.03501   +0.03692     +5.455584 
 128   27   30  1   0  0 0.020 01.0  0.00200   +0.03984   +0.04511    +13.227912 
 129   29   30  1   0  0 0.020 01.0  0.00187   +0.02075   +0.01558    -24.915663 
 130    8   28  1   0  0 0.020 01.0  0.00176   -0.00461   -0.00817    +77.223427 
 131    6   28  1   0  0 0.020 01.0  0.00243   +0.10513   +0.10423     -0.856083 
 132    1    2  4   0  0 0.020 01.0  0.00224   +0.07555   +0.07321     -3.097287 
 133    1    3  4   0  0 0.020 01.0  0.00216   +0.06422   +0.05891     -8.268452 
 134    2    4  4   0  0 0.020 01.0  0.00189   +0.02292   +0.02643    +15.314136 
 135    3    4  4   0  0 0.020 01.0  0.00224   +0.07594   +0.07459     -1.777719 
 136    2    5  4   0  0 0.020 01.0  0.00219   +0.06816   +0.07020     +2.992958 
 137    2    6  4   0  0 0.020 01.0  0.00188   +0.02215   +0.02290     +3.386005 
 138    4    6  4   0  0 0.020 01.0  0.00177   -0.00491   -0.01017   +107.128310 
 139    5    7  4   0  0 0.020 01.0  0.00179   +0.00866   +0.01028    +18.706697 
 140    6    7  4   0  0 0.020 01.0  0.00186   +0.01904   +0.01700    -10.714286 
 141    6    8  4   0  0 0.020 01.0  0.00279   +0.15906   +0.15513     -2.470766 
 142    6    9  4   0  0 0.020 01.0  0.00249   -0.11362   -0.11422     +0.528076 
 143    6   10  4   0  0 0.020 01.0  0.00193   -0.03011   -0.02868     -4.749253 
 144    9   11  4   0  0 0.020 01.0  0.00232   -0.08805   -0.08385     -4.770017 
 145    9   10  4   0  0 0.020 01.0  0.00195   -0.03306   -0.03234     -2.177858 
 146    4   12  4   0  0 0.020 01.0  0.00251   +0.11719   +0.11002     -6.118269 
 147   12   13  4   0  0 0.020 01.0  0.00177   +0.00488   +0.00799    +63.729508 
 148   12   14  4   0  0 0.020 01.0  0.00181   +0.01141   +0.00895    -21.560035 
 149   12   15  4   0  0 0.020 01.0  0.00194   +0.03026   +0.03400    +12.359551 
 150   12   16  4   0  0 0.020 01.0  0.00181   +0.01199   +0.01404    +17.097581 
 151   14   15  4   0  0 0.020 01.0  0.00175   +0.00196   +0.00305    +55.612245 
 152   16   17  4   0  0 0.020 01.0  0.00175   +0.00171   +0.00053    -69.005848 
 153   15   18  4   0  0 0.020 01.0  0.00177   +0.00555   +0.00094    -83.063063 
 154   18   19  4   0  0 0.020 01.0  0.00174   +0.00035   +0.00554  +1482.857143 
 155   19   20  4   0  0 0.020 01.0  0.00186   -0.01868   -0.01688     -9.635974 
 156   10   20  4   0  0 0.020 01.0  0.00189   +0.02342   +0.02035    -13.108454 
 157   10   17  4   0  0 0.020 01.0  0.00194   +0.03150   +0.02674    -15.111111 
 158   10   21  4   0  0 0.020 01.0  0.00210   +0.05525   +0.05198     -5.918552 
 159   10   22  4   0  0 0.020 01.0  0.00190   +0.02511   +0.02970    +18.279570 
 160   21   22  4   0  0 0.020 01.0  0.00180   -0.00951   -0.01255    +31.966351 
 161   15   23  4   0  0 0.020 01.0  0.00181   +0.01143   +0.01121     -1.924759 
 162   22   24  4   0  0 0.020 01.0  0.00184   +0.01525   +0.01976    +29.573770 
 163   23   24  4   0  0 0.020 01.0  0.00175   +0.00227   -0.00094   -141.409692 
 164   24   25  4   0  0 0.020 01.0  0.00191   +0.02716   +0.02656     -2.209131 
 165   25   26  4   0  0 0.020 01.0  0.00182   +0.01320   +0.01449     +9.772727 
 166   25   27  4   0  0 0.020 01.0  0.00183   +0.01373   +0.01477     +7.574654 
 167   28   27  4   0  0 0.020 01.0  0.00178   +0.00765   +0.00943    +23.267974 
 168   27   29  4   0  0 0.020 01.0  0.00179   +0.00884   +0.00634    -28.280543 
 169   27   30  4   0  0 0.020 01.0  0.00179   +0.00875   +0.00793     -9.371429 
 170   29   30  4   0  0 0.020 01.0  0.00176   +0.00335   +0.00650    +94.029851 
 171    8   28  4   0  0 0.020 01.0  0.00208   -0.05253   -0.04713    -10.279840 
 172    6   28  4   0  0 0.020 01.0  0.00176   +0.00362   +0.00330     -8.839779 
 173    2    1  1   0  0 0.020 01.0  0.00525   -0.52720   -0.53330     +1.157056 
 174    3    1  1   0  0 0.020 01.0  0.00442   -0.40330   -0.40490     +0.396727 
 175    4    2  1   0  0 0.020 01.0  0.00367   -0.29036   -0.29462     +1.467144 
 176    4    3  1   0  0 0.020 01.0  0.00432   -0.38733   -0.39316     +1.505176 
 177    5    2  1   0  0 0.020 01.0  0.00482   -0.46328   -0.47373     +2.255655 
 178    6    2  1   0  0 0.020 01.0  0.00419   -0.36922   -0.37761     +2.272358 
 179    6    4  1   0  0 0.020 01.0  0.00415   -0.36246   -0.36261     +0.041384 
 180    7    5  1   0  0 0.020 01.0  0.00223   +0.07398   +0.06846     -7.461476 
 181    7    6  1   0  0 0.020 01.0  0.00309   -0.20398   -0.19606     -3.882734 
 182    8    6  1   0  0 0.020 01.0  0.00284   -0.16639   -0.17239     +3.605986 
 183    9    6  1   0  0 0.020 01.0  0.00281   -0.16165   -0.16737     +3.538509 
 184   10    6  1   0  0 0.020 01.0  0.00235   -0.09279   -0.08972     -3.308546 
 185   11    9  1   0  0 0.020 01.0  0.00173   -0.00000   +0.00182     +0.000000 
 186   10    9  1   0  0 0.020 01.0  0.00281   -0.16165   -0.16403     +1.472317 
 187   12    4  1   0  0 0.020 01.0  0.00336   -0.24473   -0.25300     +3.379234 
 188   13   12  1   0  0 0.020 01.0  0.00173   +0.00000   -0.00511     +0.000000 
 189   14   12  1   0  0 0.020 01.0  0.00202   -0.04322   -0.04476     +3.563165 
 190   15   12  1   0  0 0.020 01.0  0.00239   -0.09839   -0.09426     -4.197581 
 191   16   12  1   0  0 0.020 01.0  0.00199   -0.03816   -0.03879     +1.650943 
 192   15   14  1   0  0 0.020 01.0  0.00179   -0.00820   -0.01250    +52.439024 
 193   17   16  1   0  0 0.020 01.0  0.00185   -0.01815   -0.01474    -18.787879 
 194   18   15  1   0  0 0.020 01.0  0.00195   -0.03200   -0.03014     -5.812500 
 195   19   18  1   0  0 0.020 01.0  0.00183   -0.01399   -0.01451     +3.716941 
 196   20   19  1   0  0 0.020 01.0  0.00200   +0.04007   +0.04047     +0.998253 
 197   20   10  1   0  0 0.020 01.0  0.00209   -0.05307   -0.05274     -0.621820 
 198   17   10  1   0  0 0.020 01.0  0.00195   -0.03285   -0.03134     -4.596651 
 199   21   10  1   0  0 0.020 01.0  0.00234   -0.09131   -0.08925     -2.256051 
 200   22   10  1   0  0 0.020 01.0  0.00203   -0.04435   -0.04810     +8.455468 
 201   22   21  1   0  0 0.020 01.0  0.00179   +0.00870   +0.01194    +37.241379 
 202   23   15  1   0  0 0.020 01.0  0.00192   -0.02741   -0.03090    +12.732579 
 203   24   22  1   0  0 0.020 01.0  0.00197   -0.03550   -0.03655     +2.957746 
 204   24   23  1   0  0 0.020 01.0  0.00180   -0.00940   -0.01225    +30.319149 
 205   25   24  1   0  0 0.020 01.0  0.00177   +0.00522   +0.00281    -46.168582 
 206   26   25  1   0  0 0.020 01.0  0.00187   -0.02000   -0.02550    +27.500000 
 207   27   25  1   0  0 0.020 01.0  0.00190   +0.02544   +0.03033    +19.221698 
 208   27   28  1   0  0 0.020 01.0  0.00240   -0.10029   -0.10000     -0.289161 
 209   29   27  1   0  0 0.020 01.0  0.00197   -0.03475   -0.03517     +1.208633 
 210   30   27  1   0  0 0.020 01.0  0.00200   -0.03935   -0.03907     -0.711563 
 211   30   29  1   0  0 0.020 01.0  0.00187   -0.02065   -0.02248     +8.861985 
 212   28    8  1   0  0 0.020 01.0  0.00176   +0.00467   +0.00289    -38.115632 
 213   28    6  1   0  0 0.020 01.0  0.00243   -0.10495   -0.09782     -6.793711 
 214    2    1  4   0  0 0.020 01.0  0.00253   -0.11898   -0.11938     +0.336191 
 215    3    1  4   0  0 0.020 01.0  0.00229   -0.08294   -0.07955     -4.087292 
 216    4    2  4   0  0 0.020 01.0  0.00205   -0.04813   -0.04603     -4.363183 
 217    4    3  4   0  0 0.020 01.0  0.00226   -0.07916   -0.07515     -5.065690 
 218    5    2  4   0  0 0.020 01.0  0.00220   -0.07011   -0.07312     +4.293253 
 219    6    2  4   0  0 0.020 01.0  0.00199   -0.03875   -0.04133     +6.658065 
 220    6    4  4   0  0 0.020 01.0  0.00174   +0.00077   +0.00304   +294.805195 
 221    7    5  4   0  0 0.020 01.0  0.00193   -0.02883   -0.03248    +12.660423 
 222    7    6  4   0  0 0.020 01.0  0.00195   -0.03317   -0.02925    -11.817908 
 223    8    6  4   0  0 0.020 01.0  0.00284   -0.16610   -0.17173     +3.389524 
 224    9    6  4   0  0 0.020 01.0  0.00254   +0.12111   +0.12802     +5.705557 
 225   10    6  4   0  0 0.020 01.0  0.00197   +0.03489   +0.03752     +7.537976 
 226   11    9  4   0  0 0.020 01.0  0.00233   +0.08947   +0.08436     -5.711412 
 227   10    9  4   0  0 0.020 01.0  0.00197   +0.03570   +0.03988    +11.708683 
 228   12    4  4   0  0 0.020 01.0  0.00241   -0.10154   -0.09530     -6.145361 
 229   13   12  4   0  0 0.020 01.0  0.00177   -0.00488   -0.00420    -13.934426 
 230   14   12  4   0  0 0.020 01.0  0.00181   -0.01096   -0.01206    +10.036496 
 231   15   12  4   0  0 0.020 01.0  0.00193   -0.02904   -0.02971     +2.307163 
 232   16   12  4   0  0 0.020 01.0  0.00181   -0.01171   -0.00952    -18.701964 
 233   15   14  4   0  0 0.020 01.0  0.00175   -0.00195   -0.00446   +128.717949 
 234   17   16  4   0  0 0.020 01.0  0.00174   -0.00166   -0.00659   +296.987952 
 235   18   15  4   0  0 0.020 01.0  0.00177   -0.00535   -0.00059    -88.971963 
 236   19   18  4   0  0 0.020 01.0  0.00173   -0.00032   +0.00484  -1612.500000 
 237   20   19  4   0  0 0.020 01.0  0.00186   +0.01879   +0.02191    +16.604577 
 238   20   10  4   0  0 0.020 01.0  0.00188   -0.02279   -0.01726    -24.265029 
 239   17   10  4   0  0 0.020 01.0  0.00194   -0.03134   -0.03149     +0.478622 
 240   21   10  4   0  0 0.020 01.0  0.00210   -0.05449   -0.05917     +8.588732 
 241   22   10  4   0  0 0.020 01.0  0.00190   -0.02476   -0.02517     +1.655897 
 242   22   21  4   0  0 0.020 01.0  0.00180   +0.00951   +0.01212    +27.444795 
 243   23   15  4   0  0 0.020 01.0  0.00181   -0.01127   -0.00939    -16.681455 
 244   24   22  4   0  0 0.020 01.0  0.00183   -0.01501   -0.01090    -27.381746 
 245   24   23  4   0  0 0.020 01.0  0.00175   -0.00225   +0.00046   -120.444444 
 246   25   24  4   0  0 0.020 01.0  0.00191   -0.02694   -0.02559     -5.011136 
 247   26   25  4   0  0 0.020 01.0  0.00182   -0.01300   -0.01546    +18.923077 
 248   27   25  4   0  0 0.020 01.0  0.00182   -0.01358   -0.01537    +13.181149 
 249   27   28  4   0  0 0.020 01.0  0.00176   -0.00402   -0.00047    -88.308458 
 250   29   27  4   0  0 0.020 01.0  0.00179   -0.00835   -0.00957    +14.610778 
 251   30   27  4   0  0 0.020 01.0  0.00179   -0.00784   -0.01233    +57.270408 
 252   30   29  4   0  0 0.020 01.0  0.00175   -0.00316   +0.00069   -121.835443 
 253   28    8  4   0  0 0.020 01.0  0.00179   +0.00878   +0.00809     -7.858770 
 254   28    6  4   0  0 0.020 01.0  0.00184   -0.01643   -0.02006    +22.093731 
----------------------------------------------------------------------------------
Número de medidores SCADA:     254
Número de PMUs:                0
Número de medidas das PMUs:    0
----------------------------------------------------------------------------------

Não há medidas de ângulo.
Não há medidores desabilitados.
============================== Estado Estimado ===================================
                 Barra     Mod(pu)    Ang(graus)              
----------------------------------------------------------------------------------
                    1            1.0593              0.00        
                    2            1.0442             -1.50        
                    3            1.0297             -3.38        
                    4            1.0219             -4.13        
                    5            1.0097             -6.34        
                    6            1.0179             -4.96        
                    7            1.0106             -5.82        
                    8            1.0091             -5.25        
                    9            1.0643             -6.74        
                   10            1.0682             -7.63        
                   11            1.0809             -6.73        
                   12            1.0715             -7.23        
                   13            1.0708             -7.25        
                   14            1.0644             -7.70        
                   15            1.0619             -7.77        
                   16            1.0662             -7.54        
                   17            1.0648             -7.71        
                   18            1.0578             -8.12        
                   19            1.0570             -8.21        
                   20            1.0594             -8.10        
                   21            1.0613             -7.88        
                   22            1.0616             -7.87        
                   23            1.0567             -8.01        
                   24            1.0555             -8.12        
                   25            1.0479             -7.77        
                   26            1.0384             -8.00        
                   27            1.0476             -7.39        
                   28            1.0154             -5.29        
                   29            1.0363             -8.05        
                   30            1.0305             -8.49        
----------------------------------------------------------------------------------
Convergiu em:    2 iteraçoes. 
----------------------------------------------------------------------------------
--- RESIDUOS NORMALIZADOS --------------------------------------------------------
   N    D    P  TP      Real     Medido   Estimado      Med-Est        rn 
----------------------------------------------------------------------------------
  91    1    2  1    +0.5322    +0.5208    +0.5381  -1.7287e-02      0.272 
   8    0    8  6    +1.0100    +1.0246    +1.0091  +1.5417e-02      0.221 
 177    5    2  1    -0.4633    -0.4737    -0.4598  -1.3886e-02      0.210 
  26    0   26  6    +1.0382    +1.0526    +1.0384  +1.4283e-02      0.205 
  95    2    5  1    +0.4733    +0.4832    +0.4697  +1.3463e-02      0.202 
  16    0   16  6    +1.0660    +1.0521    +1.0662  -1.4148e-02      0.197 
   6    0    6  6    +1.0187    +1.0042    +1.0179  -1.3701e-02      0.195 
  12    0   12  6    +1.0716    +1.0845    +1.0715  +1.3001e-02      0.181 
  29    0   29  6    +1.0370    +1.0240    +1.0363  -1.2224e-02      0.175 
 162   22   24  4    +0.0152    +0.0198    +0.0132  +6.5716e-03      0.171 
  32    0    2  2    +0.6180    +0.6019    +0.6108  -8.9345e-03      0.168 
   1    0    1  6    +1.0600    +1.0708    +1.0593  +1.1494e-02      0.160 
 154   18   19  4    +0.0003    +0.0055    -0.0002  +5.7270e-03      0.156 
 206   26   25  1    -0.0200    -0.0255    -0.0198  -5.7153e-03      0.155 
 106   12   13  1    -0.0000    -0.0029    +0.0023  -5.2155e-03      0.150 
 133    1    3  4    +0.0642    +0.0589    +0.0654  -6.5025e-03      0.147 
  22    0   22  6    +1.0618    +1.0717    +1.0616  +1.0076e-02      0.141 
 128   27   30  1    +0.0398    +0.0451    +0.0393  +5.8009e-03      0.138 
  61    0    1  5    +0.1398    +0.1477    +0.1421  +5.5988e-03      0.138 
  15    0   15  6    +1.0619    +1.0525    +1.0619  -9.4142e-03      0.132 
 213   28    6  1    -0.1050    -0.0978    -0.1036  +5.7598e-03      0.131 
  27    0   27  6    +1.0478    +1.0384    +1.0476  -9.2631e-03      0.131 
   3    0    3  6    +1.0307    +1.0205    +1.0297  -9.2085e-03      0.130 
 236   19   18  4    -0.0003    +0.0048    +0.0002  +4.6299e-03      0.126 
  75    0   15  5    -0.0140    -0.0118    -0.0153  +3.4690e-03      0.126 
  81    0   21  5    -0.0640    -0.0597    -0.0641  +4.4023e-03      0.122 
 124   25   26  1    +0.0201    +0.0155    +0.0199  -4.4356e-03      0.121 
 103    9   11  1    +0.0000    -0.0045    -0.0003  -4.1711e-03      0.119 
 178    6    2  1    -0.3692    -0.3776    -0.3702  -7.4231e-03      0.118 
 157   10   17  4    +0.0315    +0.0267    +0.0312  -4.4174e-03      0.117 
 104    9   10  1    +0.1616    +0.1556    +0.1611  -5.4979e-03      0.117 
 114   19   20  1    -0.0400    -0.0452    -0.0407  -4.4994e-03      0.116 
  93    2    4  1    +0.2950    +0.2894    +0.2961  -6.7260e-03      0.114 
 223    8    6  4    -0.1661    -0.1717    -0.1665  -5.2032e-03      0.112 
 222    7    6  4    -0.0332    -0.0293    -0.0335  +4.2497e-03      0.112 
  80    0   20  5    -0.0040    -0.0059    -0.0024  -3.4761e-03      0.111 
 113   18   19  1    +0.0140    +0.0100    +0.0141  -4.1334e-03      0.110 
  94    3    4  1    +0.3893    +0.3981    +0.3915  +6.6218e-03      0.110 
 237   20   19  4    +0.0188    +0.0219    +0.0178  +4.1114e-03      0.110 
 201   22   21  1    +0.0087    +0.0119    +0.0079  +4.0081e-03      0.109 
 108   12   15  1    +0.0990    +0.0925    +0.0973  -4.8944e-03      0.109 
  41    0   11  2    -0.0000    -0.0035    +0.0003  -3.8289e-03      0.109 
  31    0    1  2    +0.9426    +0.9593    +0.9511  +8.1420e-03      0.108 
 224    9    6  4    +0.1211    +0.1280    +0.1230  +4.9848e-03      0.108 
 240   21   10  4    -0.0545    -0.0592    -0.0548  -4.3956e-03      0.106 
 171    8   28  4    -0.0525    -0.0471    -0.0519  +4.7555e-03      0.106 
 159   10   22  4    +0.0251    +0.0297    +0.0253  +4.4277e-03      0.105 
  36    0    6  2    +0.0000    +0.0000    -0.0019  +1.9405e-03      0.104 
 218    5    2  4    -0.0701    -0.0731    -0.0685  -4.6465e-03      0.104 
  52    0   22  2    -0.0000    -0.0042    -0.0012  -3.0407e-03      0.104 
 251   30   27  4    -0.0078    -0.0123    -0.0082  -4.0945e-03      0.103 
 167   28   27  4    +0.0076    +0.0094    +0.0055  +3.8968e-03      0.103 
  42    0   12  2    -0.0640    -0.0684    -0.0712  +2.8137e-03      0.102 
  37    0    7  2    -0.1300    -0.1223    -0.1261  +3.8094e-03      0.102 
   4    0    4  6    +1.0228    +1.0148    +1.0219  -7.1238e-03      0.101 
  57    0   27  2    +0.0000    -0.0021    +0.0005  -2.5970e-03      0.101 
 204   24   23  1    -0.0094    -0.0123    -0.0083  -3.9123e-03      0.100 
 193   17   16  1    -0.0181    -0.0147    -0.0186  +3.8450e-03      0.099 
 129   29   30  1    +0.0208    +0.0156    +0.0195  -3.8968e-03      0.098 
 141    6    8  4    +0.1591    +0.1551    +0.1595  -4.4068e-03      0.096 
  34    0    4  2    -0.0690    -0.0662    -0.0687  +2.4995e-03      0.096 
 136    2    5  4    +0.0682    +0.0702    +0.0659  +4.2581e-03      0.096 
 122   23   24  1    +0.0094    +0.0121    +0.0083  +3.7440e-03      0.096 
 123   24   25  1    -0.0051    -0.0084    -0.0048  -3.5879e-03      0.095 
  19    0   19  6    +1.0566    +1.0502    +1.0570  -6.7601e-03      0.095 
 170   29   30  4    +0.0034    +0.0065    +0.0028  +3.6687e-03      0.095 
 168   27   29  4    +0.0088    +0.0063    +0.0100  -3.6376e-03      0.095 
 234   17   16  4    -0.0017    -0.0066    -0.0030  -3.5583e-03      0.094 
 111   16   17  1    +0.0182    +0.0222    +0.0186  +3.6486e-03      0.094 
   2    0    2  6    +1.0450    +1.0508    +1.0442  +6.5709e-03      0.092 
 145    9   10  4    -0.0331    -0.0323    -0.0358  +3.5079e-03      0.092 
   7    0    7  6    +1.0112    +1.0042    +1.0106  -6.3635e-03      0.091 
 215    3    1  4    -0.0829    -0.0795    -0.0837  +4.1248e-03      0.090 
 149   12   15  4    +0.0303    +0.0340    +0.0304  +3.6124e-03      0.090 
 184   10    6  1    -0.0928    -0.0897    -0.0940  +4.2835e-03      0.090 
  77    0   17  5    -0.0330    -0.0370    -0.0340  -2.9659e-03      0.088 
 160   21   22  4    -0.0095    -0.0126    -0.0093  -3.2121e-03      0.087 
  72    0   12  5    -0.0430    -0.0418    -0.0394  -2.3946e-03      0.087 
 100    6    8  1    +0.1670    +0.1653    +0.1693  -4.0237e-03      0.087 
 252   30   29  4    -0.0032    +0.0007    -0.0027  +3.3578e-03      0.087 
 243   23   15  4    -0.0113    -0.0094    -0.0127  +3.3133e-03      0.087 
  24    0   24  6    +1.0554    +1.0617    +1.0555  +6.1443e-03      0.086 
  46    0   16  2    -0.0200    -0.0148    -0.0175  +2.7651e-03      0.086 
 158   10   21  4    +0.0553    +0.0520    +0.0555  -3.5514e-03      0.086 
  67    0    7  5    -0.0620    -0.0673    -0.0643  -3.0694e-03      0.086 
 207   27   25  1    +0.0254    +0.0303    +0.0271  +3.1802e-03      0.083 
 132    1    2  4    +0.0756    +0.0732    +0.0767  -3.4787e-03      0.083 
  35    0    5  2    -0.5370    -0.5255    -0.5306  +5.1313e-03      0.083 
 189   14   12  1    -0.0432    -0.0448    -0.0413  -3.4676e-03      0.083 
 187   12    4  1    -0.2447    -0.2530    -0.2486  -4.3929e-03      0.082 
 188   13   12  1    +0.0000    -0.0051    -0.0023  -2.8245e-03      0.081 
  51    0   21  2    -0.1000    -0.0964    -0.0995  +3.1156e-03      0.081 
 182    8    6  1    -0.1664    -0.1724    -0.1687  -3.7206e-03      0.080 
  18    0   18  6    +1.0575    +1.0635    +1.0578  +5.7104e-03      0.080 
 200   22   10  1    -0.0444    -0.0481    -0.0446  -3.5008e-03      0.080 
  14    0   14  6    +1.0640    +1.0701    +1.0644  +5.6963e-03      0.080 
 235   18   15  4    -0.0053    -0.0006    -0.0036  +3.0099e-03      0.079 
  98    5    7  1    -0.0737    -0.0676    -0.0708  +3.2369e-03      0.079 
  21    0   21  6    +1.0615    +1.0556    +1.0613  -5.6497e-03      0.079 
 211   30   29  1    -0.0207    -0.0225    -0.0194  -3.0898e-03      0.077 
   9    0    9  6    +1.0648    +1.0588    +1.0643  -5.5130e-03      0.077 
 134    2    4  4    +0.0229    +0.0264    +0.0232  +3.2220e-03      0.077 
 238   20   10  4    -0.0228    -0.0173    -0.0202  +2.9425e-03      0.076 
  50    0   20  2    -0.0130    -0.0153    -0.0129  -2.4022e-03      0.076 
 153   15   18  4    +0.0056    +0.0009    +0.0038  -2.8743e-03      0.076 
 101    6    9  1    +0.1616    +0.1614    +0.1651  -3.6699e-03      0.075 
 242   22   21  4    +0.0095    +0.0121    +0.0093  +2.7789e-03      0.075 
 247   26   25  4    -0.0130    -0.0155    -0.0128  -2.6920e-03      0.074 
 146    4   12  4    +0.1172    +0.1100    +0.1134  -3.3795e-03      0.074 
 219    6    2  4    -0.0387    -0.0413    -0.0382  -3.1744e-03      0.074 
 119   21   22  1    -0.0087    -0.0106    -0.0079  -2.6597e-03      0.073 
  39    0    9  2    +0.0000    -0.0024    -0.0043  +1.8709e-03      0.072 
 192   15   14  1    -0.0082    -0.0125    -0.0097  -2.8276e-03      0.072 
 172    6   28  4    +0.0036    +0.0033    +0.0059  -2.6127e-03      0.072 
  90    0   30  5    -0.0110    -0.0086    -0.0109  +2.3433e-03      0.071 
 194   18   15  1    -0.0320    -0.0301    -0.0329  +2.8009e-03      0.070 
  86    0   26  5    -0.0130    -0.0102    -0.0128  +2.5280e-03      0.069 
 120   15   23  1    +0.0275    +0.0322    +0.0295  +2.7149e-03      0.069 
  76    0   16  5    -0.0100    -0.0104    -0.0082  -2.1939e-03      0.069 
 152   16   17  4    +0.0017    +0.0005    +0.0031  -2.5618e-03      0.068 
  47    0   17  2    -0.0510    -0.0476    -0.0499  +2.3421e-03      0.067 
 138    4    6  4    -0.0049    -0.0102    -0.0078  -2.3926e-03      0.066 
 130    8   28  1    -0.0046    -0.0082    -0.0055  -2.7071e-03      0.066 
 191   16   12  1    -0.0382    -0.0388    -0.0361  -2.6535e-03      0.065 
  11    0   11  6    +1.0820    +1.0856    +1.0809  +4.6884e-03      0.065 
 217    4    3  4    -0.0792    -0.0751    -0.0779  +2.7026e-03      0.064 
  78    0   18  5    -0.0050    -0.0058    -0.0038  -2.0430e-03      0.064 
 212   28    8  1    +0.0047    +0.0029    +0.0055  -2.6313e-03      0.064 
 107   12   14  1    +0.0434    +0.0388    +0.0415  -2.6777e-03      0.064 
  69    0    9  5    +0.0000    +0.0006    +0.0023  -1.7025e-03      0.064 
 150   12   16  4    +0.0120    +0.0140    +0.0116  +2.4513e-03      0.063 
 180    7    5  1    +0.0740    +0.0685    +0.0710  -2.5829e-03      0.063 
 186   10    9  1    -0.1616    -0.1640    -0.1611  -2.9121e-03      0.062 
 230   14   12  4    -0.0110    -0.0121    -0.0096  -2.4353e-03      0.061 
  45    0   15  2    -0.0470    -0.0457    -0.0439  -1.7740e-03      0.061 
 176    4    3  1    -0.3873    -0.3932    -0.3895  -3.6379e-03      0.061 
 143    6   10  4    -0.0301    -0.0287    -0.0313  +2.5931e-03      0.060 
 140    6    7  4    +0.0190    +0.0170    +0.0192  -2.1823e-03      0.059 
  25    0   25  6    +1.0478    +1.0520    +1.0479  +4.1452e-03      0.058 
 118   10   22  1    +0.0445    +0.0423    +0.0448  -2.5176e-03      0.058 
 205   25   24  1    +0.0052    +0.0028    +0.0050  -2.1625e-03      0.057 
  33    0    3  2    -0.0140    -0.0159    -0.0143  -1.5228e-03      0.057 
  17    0   17  6    +1.0649    +1.0688    +1.0648  +4.0188e-03      0.056 
  62    0    2  5    -0.0058    -0.0102    -0.0088  -1.4243e-03      0.056 
  28    0   28  6    +1.0164    +1.0194    +1.0154  +3.9184e-03      0.056 
  73    0   13  5    -0.0049    -0.0081    -0.0061  -1.9573e-03      0.056 
 190   15   12  1    -0.0984    -0.0943    -0.0967  +2.4849e-03      0.055 
 175    4    2  1    -0.2904    -0.2946    -0.2914  -3.1956e-03      0.055 
 112   15   18  1    +0.0321    +0.0352    +0.0330  +2.1638e-03      0.054 
 229   13   12  4    -0.0049    -0.0042    -0.0061  +1.9127e-03      0.054 
 244   24   22  4    -0.0150    -0.0109    -0.0130  +2.0608e-03      0.054 
  23    0   23  6    +1.0571    +1.0529    +1.0567  -3.7949e-03      0.053 
 147   12   13  4    +0.0049    +0.0080    +0.0061  +1.8721e-03      0.053 
 199   21   10  1    -0.0913    -0.0892    -0.0916  +2.3053e-03      0.053 
  63    0    3  5    -0.0070    -0.0073    -0.0090  +1.6190e-03      0.052 
  82    0   22  5    +0.0000    -0.0039    -0.0024  -1.5244e-03      0.051 
  87    0   27  5    +0.0000    +0.0032    +0.0019  +1.3466e-03      0.051 
  48    0   18  2    -0.0180    -0.0172    -0.0188  +1.6175e-03      0.050 
 216    4    2  4    -0.0481    -0.0460    -0.0482  +2.1876e-03      0.050 
 228   12    4  4    -0.1015    -0.0953    -0.0975  +2.2002e-03      0.049 
 109   12   16  1    +0.0383    +0.0343    +0.0363  -1.9557e-03      0.048 
  58    0   28  2    +0.0000    +0.0022    +0.0035  -1.2930e-03      0.047 
 232   16   12  4    -0.0117    -0.0095    -0.0113  +1.8180e-03      0.047 
 183    9    6  1    -0.1616    -0.1674    -0.1651  -2.2601e-03      0.046 
  99    6    7  1    +0.2051    +0.1959    +0.1982  -2.2344e-03      0.046 
 226   11    9  4    +0.0895    +0.0844    +0.0863  -1.8994e-03      0.046 
  38    0    8  2    -0.1710    -0.1722    -0.1741  +1.9023e-03      0.044 
  54    0   24  2    -0.0500    -0.0471    -0.0485  +1.4316e-03      0.044 
 161   15   23  4    +0.0114    +0.0112    +0.0129  -1.6788e-03      0.044 
 185   11    9  1    -0.0000    +0.0018    +0.0003  +1.5211e-03      0.043 
 221    7    5  4    -0.0288    -0.0325    -0.0308  -1.7191e-03      0.043 
 125   25   27  1    -0.0254    -0.0287    -0.0271  -1.6472e-03      0.043 
  13    0   13  6    +1.0710    +1.0677    +1.0708  -3.0900e-03      0.043 
 233   15   14  4    -0.0019    -0.0045    -0.0028  -1.6644e-03      0.042 
 165   25   26  4    +0.0132    +0.0145    +0.0130  +1.5266e-03      0.042 
  53    0   23  2    -0.0180    -0.0224    -0.0210  -1.3227e-03      0.041 
  97    4    6  1    +0.3640    +0.3613    +0.3636  -2.2599e-03      0.039 
 202   23   15  1    -0.0274    -0.0309    -0.0294  -1.5068e-03      0.038 
 246   25   24  4    -0.0269    -0.0256    -0.0271  +1.5168e-03      0.038 
 115   10   20  1    +0.0534    +0.0555    +0.0540  +1.5169e-03      0.038 
 227   10    9  4    +0.0357    +0.0399    +0.0385  +1.3865e-03      0.036 
  64    0    4  5    -0.0150    -0.0195    -0.0204  +9.7820e-04      0.036 
 254   28    6  4    -0.0164    -0.0201    -0.0187  -1.3419e-03      0.036 
 249   27   28  4    -0.0040    -0.0005    -0.0018  +1.3395e-03      0.036 
  84    0   24  5    -0.0380    -0.0328    -0.0339  +1.1231e-03      0.035 
 208   27   28  1    -0.1003    -0.1000    -0.1016  +1.5715e-03      0.035 
  96    2    6  1    +0.3769    +0.3757    +0.3779  -2.2112e-03      0.035 
  10    0   10  6    +1.0683    +1.0707    +1.0682  +2.4823e-03      0.035 
 116   10   17  1    +0.0329    +0.0327    +0.0314  +1.2973e-03      0.034 
 163   23   24  4    +0.0023    -0.0009    +0.0004  -1.3260e-03      0.034 
 110   14   15  1    +0.0082    +0.0083    +0.0097  -1.3523e-03      0.034 
 127   27   29  1    +0.0350    +0.0369    +0.0356  +1.3004e-03      0.032 
  66    0    6  5    +0.0000    +0.0043    +0.0036  +6.7967e-04      0.031 
 203   24   22  1    -0.0355    -0.0365    -0.0353  -1.2082e-03      0.030 
 169   27   30  4    +0.0088    +0.0079    +0.0091  -1.1998e-03      0.030 
 225   10    6  4    +0.0349    +0.0375    +0.0362  +1.3015e-03      0.030 
  40    0   10  2    -0.0320    -0.0323    -0.0330  +7.2100e-04      0.029 
  60    0   30  2    -0.0600    -0.0572    -0.0582  +1.0242e-03      0.028 
  20    0   20  6    +1.0591    +1.0614    +1.0594  +2.0003e-03      0.028 
 148   12   14  4    +0.0114    +0.0089    +0.0100  -1.0807e-03      0.027 
 137    2    6  4    +0.0221    +0.0229    +0.0218  +1.1303e-03      0.027 
 144    9   11  4    -0.0881    -0.0838    -0.0849  +1.0848e-03      0.026 
   5    0    5  6    +1.0100    +1.0080    +1.0097  -1.6858e-03      0.024 
 197   20   10  1    -0.0531    -0.0527    -0.0537  +9.7843e-04      0.024 
  55    0   25  2    -0.0000    -0.0015    -0.0022  +6.5471e-04      0.023 
  30    0   30  6    +1.0308    +1.0321    +1.0305  +1.5832e-03      0.023 
  89    0   29  5    -0.0050    -0.0059    -0.0066  +7.2852e-04      0.023 
 142    6    9  4    -0.1136    -0.1142    -0.1153  +1.0302e-03      0.022 
 181    7    6  1    -0.2040    -0.1961    -0.1971  +1.0723e-03      0.022 
 166   25   27  4    +0.0137    +0.0148    +0.0156  -8.2987e-04      0.022 
 245   24   23  4    -0.0022    +0.0005    -0.0004  +8.2910e-04      0.021 
 155   19   20  4    -0.0187    -0.0169    -0.0177  +7.9858e-04      0.021 
  83    0   23  5    -0.0090    -0.0117    -0.0123  +6.3732e-04      0.020 
 164   24   25  4    +0.0272    +0.0266    +0.0273  -7.7453e-04      0.020 
  56    0   26  2    -0.0200    -0.0191    -0.0198  +6.8475e-04      0.019 
  65    0    5  5    -0.0615    -0.0586    -0.0579  -6.5258e-04      0.018 
 220    6    4  4    +0.0008    +0.0030    +0.0037  -6.1739e-04      0.017 
  74    0   14  5    -0.0090    -0.0073    -0.0068  -4.9883e-04      0.016 
 174    3    1  1    -0.4033    -0.4049    -0.4059  +9.5545e-04      0.015 
 105    4   12  1    +0.2447    +0.2478    +0.2486  -7.5709e-04      0.014 
  79    0   19  5    -0.0190    -0.0179    -0.0175  -4.6153e-04      0.014 
  92    1    3  1    +0.4104    +0.4139    +0.4130  +8.8901e-04      0.014 
  70    0   10  5    -0.0110    -0.0090    -0.0093  +3.0774e-04      0.013 
 231   15   12  4    -0.0290    -0.0297    -0.0292  -5.0346e-04      0.013 
 239   17   10  4    -0.0313    -0.0315    -0.0310  -4.7758e-04      0.013 
 156   10   20  4    +0.0234    +0.0204    +0.0208  -4.6590e-04      0.012 
  44    0   14  2    -0.0350    -0.0320    -0.0316  -3.6987e-04      0.011 
 131    6   28  1    +0.1051    +0.1042    +0.1038  +4.7198e-04      0.011 
  59    0   29  2    -0.0140    -0.0155    -0.0159  +3.3877e-04      0.011 
 121   22   24  1    +0.0357    +0.0351    +0.0355  -4.1809e-04      0.010 
 195   19   18  1    -0.0140    -0.0145    -0.0141  -3.8801e-04      0.010 
  71    0   11  5    +0.0895    +0.0867    +0.0863  +4.1056e-04      0.010 
 126   28   27  1    +0.1003    +0.1011    +0.1016  -4.3148e-04      0.010 
 102    6   10  1    +0.0928    +0.0945    +0.0940  +4.5645e-04      0.010 
  88    0   28  5    +0.0000    -0.0047    -0.0050  +2.7431e-04      0.009 
 179    6    4  1    -0.3625    -0.3626    -0.3621  -5.1679e-04      0.009 
 196   20   19  1    +0.0401    +0.0405    +0.0408  -3.2061e-04      0.008 
 139    5    7  4    +0.0087    +0.0103    +0.0106  -2.8607e-04      0.008 
 117   10   21  1    +0.0916    +0.0916    +0.0919  -3.1698e-04      0.007 
 214    2    1  4    -0.1190    -0.1194    -0.1197  +3.0534e-04      0.007 
  49    0   19  2    -0.0540    -0.0546    -0.0549  +2.2260e-04      0.006 
 151   14   15  4    +0.0020    +0.0031    +0.0028  +2.3649e-04      0.006 
 173    2    1  1    -0.5272    -0.5333    -0.5329  -3.6995e-04      0.006 
 241   22   10  4    -0.0248    -0.0252    -0.0249  -2.4489e-04      0.006 
 210   30   27  1    -0.0394    -0.0391    -0.0388  -2.3607e-04      0.006 
  85    0   25  5    +0.0000    +0.0016    +0.0015  +1.5355e-04      0.005 
 209   29   27  1    -0.0348    -0.0352    -0.0353  +1.7554e-04      0.004 
  43    0   13  2    +0.0000    -0.0024    -0.0023  -1.2449e-04      0.004 
  68    0    8  5    -0.2186    -0.2182    -0.2184  +1.6238e-04      0.003 
 135    3    4  4    +0.0759    +0.0746    +0.0747  -1.2577e-04      0.003 
 253   28    8  4    +0.0088    +0.0081    +0.0082  -1.2058e-04      0.003 
 250   29   27  4    -0.0083    -0.0096    -0.0095  -1.1014e-04      0.003 
 248   27   25  4    -0.0136    -0.0154    -0.0154  +4.4524e-05      0.001 
 198   17   10  1    -0.0328    -0.0313    -0.0314  +1.7106e-05      0.000 
----------------------------------------------------------------------------------
Não foram identificados erros grosseiros.
Não foram identificadas medidas críticas.
Possíveis conjuntos críticos:
Conjunto 1: 241 173
Conjunto 2: 102 126
Conjunto 3: 121 59
Conjunto 4: 239 231 70
Conjunto 5: 231 70
Conjunto 6: 92 79
Conjunto 7: 79 105
Conjunto 8: 155 245
Conjunto 9: 166 181
Conjunto 10: 89 30
Conjunto 11: 197 5
Conjunto 12: 137 148
Conjunto 13: 20 60
Conjunto 14: 225 169
Conjunto 15: 169 203
Conjunto 16: 110 163 116 10
Conjunto 17: 163 116 10
Conjunto 18: 116 10
Conjunto 19: 96 208
Conjunto 20: 208 84
Conjunto 21: 84 249 254
Conjunto 22: 249 254 64
Conjunto 23: 254 64
Conjunto 24: 64 227
Conjunto 25: 246 202
Conjunto 26: 165 233
Conjunto 27: 13 125 221 185
Conjunto 28: 125 221 185
Conjunto 29: 221 185
Conjunto 30: 161 54
Conjunto 31: 54 38
Conjunto 32: 226 99 183
Conjunto 33: 99 183
Conjunto 34: 232 58
Conjunto 35: 216 48
Conjunto 36: 82 63
Conjunto 37: 199 147 23
Conjunto 38: 147 23 244
Conjunto 39: 23 244
Conjunto 40: 229 112 175
Conjunto 41: 112 175
Conjunto 42: 190 73 28
Conjunto 43: 73 28 62 17
Conjunto 44: 28 62 17
Conjunto 45: 62 17
Conjunto 46: 205 118
Conjunto 47: 140 143
Conjunto 48: 143 176
Conjunto 49: 176 45
Conjunto 50: 45 230
Conjunto 51: 230 186
Conjunto 52: 180 150 69 107
Conjunto 53: 150 69 107 212
Conjunto 54: 69 107 212 78
Conjunto 55: 107 212 78 217
Conjunto 56: 212 78 217
Conjunto 57: 78 217
Conjunto 58: 217 11
Conjunto 59: 11 191
Conjunto 60: 191 130
Conjunto 61: 76 120 86
Conjunto 62: 120 86
Conjunto 63: 90 172 192
Conjunto 64: 172 192 39
Conjunto 65: 192 39
Conjunto 66: 39 119
Conjunto 67: 219 146 247
Conjunto 68: 146 247
Conjunto 69: 242 101 153
Conjunto 70: 101 153
Conjunto 71: 153 50 238
Conjunto 72: 50 238 134 9
Conjunto 73: 238 134 9
Conjunto 74: 134 9 211
Conjunto 75: 9 211
Conjunto 76: 21 98 235 14
Conjunto 77: 98 235 14
Conjunto 78: 235 14 200 18
Conjunto 79: 14 200 18
Conjunto 80: 200 18 182
Conjunto 81: 18 182
Conjunto 82: 182 51 188
Conjunto 83: 51 188 187
Conjunto 84: 188 187
Conjunto 85: 187 189
Conjunto 86: 189 35 132 207
Conjunto 87: 35 132 207
Conjunto 88: 132 207
Conjunto 89: 67 158 46 24 243 252
Conjunto 90: 158 46 24 243 252
Conjunto 91: 46 24 243 252
Conjunto 92: 24 243 252
Conjunto 93: 243 252 100 72 160
Conjunto 94: 252 100 72 160
Conjunto 95: 100 72 160
Conjunto 96: 72 160
Conjunto 97: 184 149 215
Conjunto 98: 149 215 7
Conjunto 99: 215 7
Conjunto 100: 7 145
Conjunto 101: 145 2
Conjunto 102: 111 234 168 170 19
Conjunto 103: 234 168 170 19
Conjunto 104: 168 170 19 123
Conjunto 105: 170 19 123
Conjunto 106: 19 123
Conjunto 107: 123 122 136 34
Conjunto 108: 122 136 34 141
Conjunto 109: 136 34 141
Conjunto 110: 34 141
Conjunto 111: 204 57 4
Conjunto 112: 57 4 37 42
Conjunto 113: 4 37 42
Conjunto 114: 37 42 167
Conjunto 115: 42 167
Conjunto 116: 167 251
Conjunto 117: 251 52
Conjunto 118: 52 218 36 159
Conjunto 119: 218 36 159
Conjunto 120: 36 159
Conjunto 121: 171 240
Conjunto 122: 224 31 41 108
Conjunto 123: 31 41 108 201
Conjunto 124: 41 108 201 237
Conjunto 125: 108 201 237 94 113
Conjunto 126: 201 237 94 113
Conjunto 127: 237 94 113 80
Conjunto 128: 94 113 80
Conjunto 129: 113 80
Conjunto 130: 80 222
Conjunto 131: 222 223
Conjunto 132: 114 104 157
Conjunto 133: 104 157
Conjunto 134: 178 103
Conjunto 135: 124 81
Conjunto 136: 75 236
Conjunto 137: 3 27 213 15
Conjunto 138: 27 213 15
Conjunto 139: 213 15
Conjunto 140: 61 128
Conjunto 141: 206 154
